*SPEF "IEEE 1481-1998"
*DESIGN "IIR_filter_order2"
*DATE "Mon Nov  9 18:51:46 2020"
*VENDOR "Cadence Design Systems, Inc."
*PROGRAM "Innovus"
*VERSION "17.11-s080_1"
*DESIGN_FLOW "COUPLING C" "PIN_CAP NONE" "NAME_SCOPE LOCAL"
*DIVIDER /
*DELIMITER :
*BUS_DELIMITER []
*T_UNIT 1 NS
*C_UNIT 1 PF
*R_UNIT 1 OHM
*L_UNIT 1 HENRY

// MMMC spef file for corner 'my_rc'

*NAME_MAP

*1 FE_DBTN5_Execution_unit_w0_IIR_0
*2 DIN[10]
*3 DIN[9]
*4 DIN[8]
*5 DIN[7]
*6 DIN[6]
*7 DIN[5]
*8 DIN[4]
*9 DIN[3]
*10 DIN[2]
*11 DIN[1]
*12 DIN[0]
*13 DOUT[10]
*14 DOUT[9]
*15 DOUT[8]
*16 DOUT[7]
*17 DOUT[6]
*18 DOUT[5]
*19 DOUT[4]
*20 DOUT[3]
*21 DOUT[2]
*22 DOUT[1]
*23 DOUT[0]
*24 Clk
*25 VIN
*26 Rst_n
*27 Vout
*28 R_sw0_FIR
*29 L_sw0_FIR
*30 L_out
*31 CU_n1
*32 CU_n10
*33 CU_n9
*34 CU_n8
*35 CU_n7
*36 CU_n6
*37 CU_n5
*38 CU_n4
*39 CU_n3
*40 CU_n2
*41 Execution_unit_LoadedInput_n22
*42 Execution_unit_LoadedInput_n21
*43 Execution_unit_LoadedInput_n20
*44 Execution_unit_LoadedInput_n19
*45 Execution_unit_LoadedInput_n18
*46 Execution_unit_LoadedInput_n17
*47 Execution_unit_LoadedInput_n16
*48 Execution_unit_LoadedInput_n15
*49 Execution_unit_LoadedInput_n14
*50 Execution_unit_LoadedInput_n13
*51 Execution_unit_LoadedInput_n12
*52 Execution_unit_FirstSUM_FIR_add_15_n2
*53 Execution_unit_SecondSUM_FIR_add_15_n1
*54 Execution_unit_ThirdSUM_FIR_add_15_n2
*55 Execution_unit_FirstMultiplier_FIR_mult_17_n184
*56 Execution_unit_FirstMultiplier_FIR_mult_17_n182
*57 Execution_unit_FirstMultiplier_FIR_mult_17_n181
*58 Execution_unit_FirstMultiplier_FIR_mult_17_n180
*59 Execution_unit_FirstMultiplier_FIR_mult_17_n179
*60 Execution_unit_FirstMultiplier_FIR_mult_17_n178
*61 Execution_unit_FirstMultiplier_FIR_mult_17_n177
*62 Execution_unit_FirstMultiplier_FIR_mult_17_n175
*63 Execution_unit_FirstMultiplier_FIR_mult_17_n174
*64 Execution_unit_FirstMultiplier_FIR_mult_17_n173
*65 Execution_unit_FirstMultiplier_FIR_mult_17_n172
*66 Execution_unit_FirstMultiplier_FIR_mult_17_n171
*67 Execution_unit_FirstMultiplier_FIR_mult_17_n170
*68 Execution_unit_FirstMultiplier_FIR_mult_17_n169
*69 Execution_unit_FirstMultiplier_FIR_mult_17_n168
*70 Execution_unit_FirstMultiplier_FIR_mult_17_n167
*71 Execution_unit_FirstMultiplier_FIR_mult_17_n166
*72 Execution_unit_FirstMultiplier_FIR_mult_17_n165
*73 Execution_unit_FirstMultiplier_FIR_mult_17_n164
*74 Execution_unit_FirstMultiplier_FIR_mult_17_n163
*75 Execution_unit_FirstMultiplier_FIR_mult_17_n162
*76 Execution_unit_FirstMultiplier_FIR_mult_17_n161
*77 Execution_unit_FirstMultiplier_FIR_mult_17_n160
*78 Execution_unit_FirstMultiplier_FIR_mult_17_n119
*79 Execution_unit_FirstMultiplier_FIR_mult_17_n118
*80 Execution_unit_FirstMultiplier_FIR_mult_17_n117
*81 Execution_unit_FirstMultiplier_FIR_mult_17_n116
*82 Execution_unit_FirstMultiplier_FIR_mult_17_n115
*83 Execution_unit_FirstMultiplier_FIR_mult_17_n113
*84 Execution_unit_FirstMultiplier_FIR_mult_17_n112
*85 Execution_unit_FirstMultiplier_FIR_mult_17_n111
*86 Execution_unit_FirstMultiplier_FIR_mult_17_n110
*87 Execution_unit_FirstMultiplier_FIR_mult_17_n109
*88 Execution_unit_FirstMultiplier_FIR_mult_17_n106
*89 Execution_unit_FirstMultiplier_FIR_mult_17_n105
*90 Execution_unit_FirstMultiplier_FIR_mult_17_n104
*91 Execution_unit_FirstMultiplier_FIR_mult_17_n103
*92 Execution_unit_FirstMultiplier_FIR_mult_17_n102
*93 Execution_unit_FirstMultiplier_FIR_mult_17_n101
*94 Execution_unit_FirstMultiplier_FIR_mult_17_n100
*95 Execution_unit_FirstMultiplier_FIR_mult_17_n99
*96 Execution_unit_FirstMultiplier_FIR_mult_17_n98
*97 Execution_unit_FirstMultiplier_FIR_mult_17_n97
*98 Execution_unit_FirstMultiplier_FIR_mult_17_n95
*99 Execution_unit_FirstMultiplier_FIR_mult_17_n94
*100 Execution_unit_FirstMultiplier_FIR_mult_17_n93
*101 Execution_unit_FirstMultiplier_FIR_mult_17_n92
*102 Execution_unit_FirstMultiplier_FIR_mult_17_n91
*103 Execution_unit_FirstMultiplier_FIR_mult_17_n90
*104 Execution_unit_FirstMultiplier_FIR_mult_17_n89
*105 Execution_unit_FirstMultiplier_FIR_mult_17_n88
*106 Execution_unit_FirstMultiplier_FIR_mult_17_n86
*107 Execution_unit_FirstMultiplier_FIR_mult_17_n85
*108 Execution_unit_FirstMultiplier_FIR_mult_17_n83
*109 Execution_unit_FirstMultiplier_FIR_mult_17_n82
*110 Execution_unit_FirstMultiplier_FIR_mult_17_n81
*111 Execution_unit_FirstMultiplier_FIR_mult_17_n72
*112 Execution_unit_FirstMultiplier_FIR_mult_17_n71
*113 Execution_unit_FirstMultiplier_FIR_mult_17_n70
*114 Execution_unit_FirstMultiplier_FIR_mult_17_n69
*115 Execution_unit_FirstMultiplier_FIR_mult_17_n68
*116 Execution_unit_FirstMultiplier_FIR_mult_17_n67
*117 Execution_unit_FirstMultiplier_FIR_mult_17_n66
*118 Execution_unit_FirstMultiplier_FIR_mult_17_n65
*119 Execution_unit_FirstMultiplier_FIR_mult_17_n64
*120 Execution_unit_FirstMultiplier_FIR_mult_17_n63
*121 Execution_unit_FirstMultiplier_FIR_mult_17_n62
*122 Execution_unit_FirstMultiplier_FIR_mult_17_n61
*123 Execution_unit_FirstMultiplier_FIR_mult_17_n60
*124 Execution_unit_FirstMultiplier_FIR_mult_17_n59
*125 Execution_unit_FirstMultiplier_FIR_mult_17_n58
*126 Execution_unit_FirstMultiplier_FIR_mult_17_n57
*127 Execution_unit_FirstMultiplier_FIR_mult_17_n56
*128 Execution_unit_FirstMultiplier_FIR_mult_17_n55
*129 Execution_unit_FirstMultiplier_FIR_mult_17_n54
*130 Execution_unit_FirstMultiplier_FIR_mult_17_n53
*131 Execution_unit_FirstMultiplier_FIR_mult_17_n52
*132 Execution_unit_FirstMultiplier_FIR_mult_17_n51
*133 Execution_unit_FirstMultiplier_FIR_mult_17_n50
*134 Execution_unit_FirstMultiplier_FIR_mult_17_n49
*135 Execution_unit_FirstMultiplier_FIR_mult_17_n48
*136 Execution_unit_FirstMultiplier_FIR_mult_17_n47
*137 Execution_unit_FirstMultiplier_FIR_mult_17_n46
*138 Execution_unit_FirstMultiplier_FIR_mult_17_n45
*139 Execution_unit_FirstMultiplier_FIR_mult_17_n44
*140 Execution_unit_FirstMultiplier_FIR_mult_17_n43
*141 Execution_unit_FirstMultiplier_FIR_mult_17_n41
*142 Execution_unit_FirstMultiplier_FIR_mult_17_n40
*143 Execution_unit_FirstMultiplier_FIR_mult_17_n39
*144 Execution_unit_FirstMultiplier_FIR_mult_17_n38
*145 Execution_unit_FirstMultiplier_FIR_mult_17_n37
*146 Execution_unit_FirstMultiplier_FIR_mult_17_n36
*147 Execution_unit_FirstMultiplier_FIR_mult_17_n35
*148 Execution_unit_FirstMultiplier_FIR_mult_17_n34
*149 Execution_unit_FirstMultiplier_FIR_mult_17_n33
*150 Execution_unit_FirstMultiplier_FIR_mult_17_n32
*151 Execution_unit_FirstMultiplier_FIR_mult_17_n31
*152 Execution_unit_FirstMultiplier_FIR_mult_17_n30
*153 Execution_unit_FirstMultiplier_FIR_mult_17_n29
*154 Execution_unit_FirstMultiplier_FIR_mult_17_n28
*155 Execution_unit_FirstMultiplier_FIR_mult_17_n27
*156 Execution_unit_FirstMultiplier_FIR_mult_17_n26
*157 Execution_unit_FirstMultiplier_FIR_mult_17_n25
*158 Execution_unit_FirstMultiplier_FIR_mult_17_n24
*159 Execution_unit_FirstMultiplier_FIR_mult_17_n23
*160 Execution_unit_FirstMultiplier_FIR_mult_17_n22
*161 Execution_unit_FirstMultiplier_FIR_mult_17_n21
*162 Execution_unit_FirstMultiplier_FIR_mult_17_n20
*163 Execution_unit_FirstMultiplier_FIR_mult_17_n19
*164 Execution_unit_FirstMultiplier_FIR_mult_17_n18
*165 Execution_unit_FirstMultiplier_FIR_mult_17_n17
*166 Execution_unit_FirstMultiplier_FIR_mult_17_n16
*167 Execution_unit_FirstMultiplier_FIR_mult_17_n15
*168 Execution_unit_FirstMultiplier_FIR_mult_17_n14
*169 Execution_unit_FirstMultiplier_FIR_mult_17_n13
*170 Execution_unit_FirstMultiplier_FIR_mult_17_n8
*171 Execution_unit_FirstMultiplier_FIR_mult_17_n7
*172 Execution_unit_FirstMultiplier_FIR_mult_17_n6
*173 Execution_unit_FirstMultiplier_FIR_mult_17_n5
*174 Execution_unit_FirstMultiplier_FIR_mult_17_n4
*175 Execution_unit_FirstMultiplier_FIR_mult_17_n3
*176 Execution_unit_FirstMultiplier_FIR_mult_17_n2
*177 Execution_unit_SecondMultiplier_FIR_mult_17_n184
*178 Execution_unit_SecondMultiplier_FIR_mult_17_n182
*179 Execution_unit_SecondMultiplier_FIR_mult_17_n181
*180 Execution_unit_SecondMultiplier_FIR_mult_17_n180
*181 Execution_unit_SecondMultiplier_FIR_mult_17_n179
*182 Execution_unit_SecondMultiplier_FIR_mult_17_n178
*183 Execution_unit_SecondMultiplier_FIR_mult_17_n177
*184 Execution_unit_SecondMultiplier_FIR_mult_17_n176
*185 Execution_unit_SecondMultiplier_FIR_mult_17_n175
*186 Execution_unit_SecondMultiplier_FIR_mult_17_n174
*187 Execution_unit_SecondMultiplier_FIR_mult_17_n173
*188 Execution_unit_SecondMultiplier_FIR_mult_17_n172
*189 Execution_unit_SecondMultiplier_FIR_mult_17_n171
*190 Execution_unit_SecondMultiplier_FIR_mult_17_n170
*191 Execution_unit_SecondMultiplier_FIR_mult_17_n169
*192 Execution_unit_SecondMultiplier_FIR_mult_17_n168
*193 Execution_unit_SecondMultiplier_FIR_mult_17_n167
*194 Execution_unit_SecondMultiplier_FIR_mult_17_n166
*195 Execution_unit_SecondMultiplier_FIR_mult_17_n165
*196 Execution_unit_SecondMultiplier_FIR_mult_17_n164
*197 Execution_unit_SecondMultiplier_FIR_mult_17_n163
*198 Execution_unit_SecondMultiplier_FIR_mult_17_n161
*199 Execution_unit_SecondMultiplier_FIR_mult_17_n160
*200 Execution_unit_SecondMultiplier_FIR_mult_17_n119
*201 Execution_unit_SecondMultiplier_FIR_mult_17_n118
*202 Execution_unit_SecondMultiplier_FIR_mult_17_n117
*203 Execution_unit_SecondMultiplier_FIR_mult_17_n116
*204 Execution_unit_SecondMultiplier_FIR_mult_17_n115
*205 Execution_unit_SecondMultiplier_FIR_mult_17_n113
*206 Execution_unit_SecondMultiplier_FIR_mult_17_n112
*207 Execution_unit_SecondMultiplier_FIR_mult_17_n111
*208 Execution_unit_SecondMultiplier_FIR_mult_17_n110
*209 Execution_unit_SecondMultiplier_FIR_mult_17_n109
*210 Execution_unit_SecondMultiplier_FIR_mult_17_n106
*211 Execution_unit_SecondMultiplier_FIR_mult_17_n105
*212 Execution_unit_SecondMultiplier_FIR_mult_17_n104
*213 Execution_unit_SecondMultiplier_FIR_mult_17_n103
*214 Execution_unit_SecondMultiplier_FIR_mult_17_n102
*215 Execution_unit_SecondMultiplier_FIR_mult_17_n100
*216 Execution_unit_SecondMultiplier_FIR_mult_17_n99
*217 Execution_unit_SecondMultiplier_FIR_mult_17_n98
*218 Execution_unit_SecondMultiplier_FIR_mult_17_n97
*219 Execution_unit_SecondMultiplier_FIR_mult_17_n95
*220 Execution_unit_SecondMultiplier_FIR_mult_17_n94
*221 Execution_unit_SecondMultiplier_FIR_mult_17_n93
*222 Execution_unit_SecondMultiplier_FIR_mult_17_n92
*223 Execution_unit_SecondMultiplier_FIR_mult_17_n91
*224 Execution_unit_SecondMultiplier_FIR_mult_17_n90
*225 Execution_unit_SecondMultiplier_FIR_mult_17_n89
*226 Execution_unit_SecondMultiplier_FIR_mult_17_n88
*227 Execution_unit_SecondMultiplier_FIR_mult_17_n87
*228 Execution_unit_SecondMultiplier_FIR_mult_17_n86
*229 Execution_unit_SecondMultiplier_FIR_mult_17_n85
*230 Execution_unit_SecondMultiplier_FIR_mult_17_n83
*231 Execution_unit_SecondMultiplier_FIR_mult_17_n82
*232 Execution_unit_SecondMultiplier_FIR_mult_17_n81
*233 Execution_unit_SecondMultiplier_FIR_mult_17_n72
*234 Execution_unit_SecondMultiplier_FIR_mult_17_n71
*235 Execution_unit_SecondMultiplier_FIR_mult_17_n70
*236 Execution_unit_SecondMultiplier_FIR_mult_17_n69
*237 Execution_unit_SecondMultiplier_FIR_mult_17_n68
*238 Execution_unit_SecondMultiplier_FIR_mult_17_n67
*239 Execution_unit_SecondMultiplier_FIR_mult_17_n66
*240 Execution_unit_SecondMultiplier_FIR_mult_17_n65
*241 Execution_unit_SecondMultiplier_FIR_mult_17_n64
*242 Execution_unit_SecondMultiplier_FIR_mult_17_n63
*243 Execution_unit_SecondMultiplier_FIR_mult_17_n62
*244 Execution_unit_SecondMultiplier_FIR_mult_17_n61
*245 Execution_unit_SecondMultiplier_FIR_mult_17_n60
*246 Execution_unit_SecondMultiplier_FIR_mult_17_n59
*247 Execution_unit_SecondMultiplier_FIR_mult_17_n58
*248 Execution_unit_SecondMultiplier_FIR_mult_17_n57
*249 Execution_unit_SecondMultiplier_FIR_mult_17_n56
*250 Execution_unit_SecondMultiplier_FIR_mult_17_n55
*251 Execution_unit_SecondMultiplier_FIR_mult_17_n54
*252 Execution_unit_SecondMultiplier_FIR_mult_17_n53
*253 Execution_unit_SecondMultiplier_FIR_mult_17_n52
*254 Execution_unit_SecondMultiplier_FIR_mult_17_n51
*255 Execution_unit_SecondMultiplier_FIR_mult_17_n50
*256 Execution_unit_SecondMultiplier_FIR_mult_17_n49
*257 Execution_unit_SecondMultiplier_FIR_mult_17_n48
*258 Execution_unit_SecondMultiplier_FIR_mult_17_n47
*259 Execution_unit_SecondMultiplier_FIR_mult_17_n46
*260 Execution_unit_SecondMultiplier_FIR_mult_17_n45
*261 Execution_unit_SecondMultiplier_FIR_mult_17_n44
*262 Execution_unit_SecondMultiplier_FIR_mult_17_n43
*263 Execution_unit_SecondMultiplier_FIR_mult_17_n42
*264 Execution_unit_SecondMultiplier_FIR_mult_17_n41
*265 Execution_unit_SecondMultiplier_FIR_mult_17_n40
*266 Execution_unit_SecondMultiplier_FIR_mult_17_n39
*267 Execution_unit_SecondMultiplier_FIR_mult_17_n38
*268 Execution_unit_SecondMultiplier_FIR_mult_17_n37
*269 Execution_unit_SecondMultiplier_FIR_mult_17_n36
*270 Execution_unit_SecondMultiplier_FIR_mult_17_n35
*271 Execution_unit_SecondMultiplier_FIR_mult_17_n34
*272 Execution_unit_SecondMultiplier_FIR_mult_17_n33
*273 Execution_unit_SecondMultiplier_FIR_mult_17_n32
*274 Execution_unit_SecondMultiplier_FIR_mult_17_n31
*275 Execution_unit_SecondMultiplier_FIR_mult_17_n30
*276 Execution_unit_SecondMultiplier_FIR_mult_17_n29
*277 Execution_unit_SecondMultiplier_FIR_mult_17_n28
*278 Execution_unit_SecondMultiplier_FIR_mult_17_n27
*279 Execution_unit_SecondMultiplier_FIR_mult_17_n26
*280 Execution_unit_SecondMultiplier_FIR_mult_17_n25
*281 Execution_unit_SecondMultiplier_FIR_mult_17_n24
*282 Execution_unit_SecondMultiplier_FIR_mult_17_n23
*283 Execution_unit_SecondMultiplier_FIR_mult_17_n22
*284 Execution_unit_SecondMultiplier_FIR_mult_17_n21
*285 Execution_unit_SecondMultiplier_FIR_mult_17_n20
*286 Execution_unit_SecondMultiplier_FIR_mult_17_n19
*287 Execution_unit_SecondMultiplier_FIR_mult_17_n18
*288 Execution_unit_SecondMultiplier_FIR_mult_17_n17
*289 Execution_unit_SecondMultiplier_FIR_mult_17_n16
*290 Execution_unit_SecondMultiplier_FIR_mult_17_n15
*291 Execution_unit_SecondMultiplier_FIR_mult_17_n14
*292 Execution_unit_SecondMultiplier_FIR_mult_17_n13
*293 Execution_unit_SecondMultiplier_FIR_mult_17_n8
*294 Execution_unit_SecondMultiplier_FIR_mult_17_n7
*295 Execution_unit_SecondMultiplier_FIR_mult_17_n6
*296 Execution_unit_SecondMultiplier_FIR_mult_17_n5
*297 Execution_unit_SecondMultiplier_FIR_mult_17_n4
*298 Execution_unit_SecondMultiplier_FIR_mult_17_n3
*299 Execution_unit_SecondMultiplier_FIR_mult_17_n2
*300 Execution_unit_ThirdMultiplier_FIR_mult_17_n182
*301 Execution_unit_ThirdMultiplier_FIR_mult_17_n181
*302 Execution_unit_ThirdMultiplier_FIR_mult_17_n180
*303 Execution_unit_ThirdMultiplier_FIR_mult_17_n179
*304 Execution_unit_ThirdMultiplier_FIR_mult_17_n178
*305 Execution_unit_ThirdMultiplier_FIR_mult_17_n177
*306 Execution_unit_ThirdMultiplier_FIR_mult_17_n175
*307 Execution_unit_ThirdMultiplier_FIR_mult_17_n174
*308 Execution_unit_ThirdMultiplier_FIR_mult_17_n173
*309 Execution_unit_ThirdMultiplier_FIR_mult_17_n172
*310 Execution_unit_ThirdMultiplier_FIR_mult_17_n171
*311 Execution_unit_ThirdMultiplier_FIR_mult_17_n170
*312 Execution_unit_ThirdMultiplier_FIR_mult_17_n169
*313 Execution_unit_ThirdMultiplier_FIR_mult_17_n168
*314 Execution_unit_ThirdMultiplier_FIR_mult_17_n167
*315 Execution_unit_ThirdMultiplier_FIR_mult_17_n166
*316 Execution_unit_ThirdMultiplier_FIR_mult_17_n165
*317 Execution_unit_ThirdMultiplier_FIR_mult_17_n164
*318 Execution_unit_ThirdMultiplier_FIR_mult_17_n163
*319 Execution_unit_ThirdMultiplier_FIR_mult_17_n162
*320 Execution_unit_ThirdMultiplier_FIR_mult_17_n161
*321 Execution_unit_ThirdMultiplier_FIR_mult_17_n160
*322 Execution_unit_ThirdMultiplier_FIR_mult_17_n119
*323 Execution_unit_ThirdMultiplier_FIR_mult_17_n118
*324 Execution_unit_ThirdMultiplier_FIR_mult_17_n117
*325 Execution_unit_ThirdMultiplier_FIR_mult_17_n116
*326 Execution_unit_ThirdMultiplier_FIR_mult_17_n115
*327 Execution_unit_ThirdMultiplier_FIR_mult_17_n113
*328 Execution_unit_ThirdMultiplier_FIR_mult_17_n112
*329 Execution_unit_ThirdMultiplier_FIR_mult_17_n111
*330 Execution_unit_ThirdMultiplier_FIR_mult_17_n110
*331 Execution_unit_ThirdMultiplier_FIR_mult_17_n109
*332 Execution_unit_ThirdMultiplier_FIR_mult_17_n106
*333 Execution_unit_ThirdMultiplier_FIR_mult_17_n105
*334 Execution_unit_ThirdMultiplier_FIR_mult_17_n104
*335 Execution_unit_ThirdMultiplier_FIR_mult_17_n103
*336 Execution_unit_ThirdMultiplier_FIR_mult_17_n102
*337 Execution_unit_ThirdMultiplier_FIR_mult_17_n101
*338 Execution_unit_ThirdMultiplier_FIR_mult_17_n100
*339 Execution_unit_ThirdMultiplier_FIR_mult_17_n99
*340 Execution_unit_ThirdMultiplier_FIR_mult_17_n98
*341 Execution_unit_ThirdMultiplier_FIR_mult_17_n97
*342 Execution_unit_ThirdMultiplier_FIR_mult_17_n95
*343 Execution_unit_ThirdMultiplier_FIR_mult_17_n93
*344 Execution_unit_ThirdMultiplier_FIR_mult_17_n92
*345 Execution_unit_ThirdMultiplier_FIR_mult_17_n91
*346 Execution_unit_ThirdMultiplier_FIR_mult_17_n90
*347 Execution_unit_ThirdMultiplier_FIR_mult_17_n89
*348 Execution_unit_ThirdMultiplier_FIR_mult_17_n88
*349 Execution_unit_ThirdMultiplier_FIR_mult_17_n87
*350 Execution_unit_ThirdMultiplier_FIR_mult_17_n86
*351 Execution_unit_ThirdMultiplier_FIR_mult_17_n85
*352 Execution_unit_ThirdMultiplier_FIR_mult_17_n83
*353 Execution_unit_ThirdMultiplier_FIR_mult_17_n82
*354 Execution_unit_ThirdMultiplier_FIR_mult_17_n81
*355 Execution_unit_ThirdMultiplier_FIR_mult_17_n72
*356 Execution_unit_ThirdMultiplier_FIR_mult_17_n71
*357 Execution_unit_ThirdMultiplier_FIR_mult_17_n70
*358 Execution_unit_ThirdMultiplier_FIR_mult_17_n69
*359 Execution_unit_ThirdMultiplier_FIR_mult_17_n68
*360 Execution_unit_ThirdMultiplier_FIR_mult_17_n67
*361 Execution_unit_ThirdMultiplier_FIR_mult_17_n66
*362 Execution_unit_ThirdMultiplier_FIR_mult_17_n65
*363 Execution_unit_ThirdMultiplier_FIR_mult_17_n64
*364 Execution_unit_ThirdMultiplier_FIR_mult_17_n63
*365 Execution_unit_ThirdMultiplier_FIR_mult_17_n62
*366 Execution_unit_ThirdMultiplier_FIR_mult_17_n61
*367 Execution_unit_ThirdMultiplier_FIR_mult_17_n60
*368 Execution_unit_ThirdMultiplier_FIR_mult_17_n59
*369 Execution_unit_ThirdMultiplier_FIR_mult_17_n58
*370 Execution_unit_ThirdMultiplier_FIR_mult_17_n57
*371 Execution_unit_ThirdMultiplier_FIR_mult_17_n56
*372 Execution_unit_ThirdMultiplier_FIR_mult_17_n55
*373 Execution_unit_ThirdMultiplier_FIR_mult_17_n54
*374 Execution_unit_ThirdMultiplier_FIR_mult_17_n53
*375 Execution_unit_ThirdMultiplier_FIR_mult_17_n52
*376 Execution_unit_ThirdMultiplier_FIR_mult_17_n51
*377 Execution_unit_ThirdMultiplier_FIR_mult_17_n50
*378 Execution_unit_ThirdMultiplier_FIR_mult_17_n49
*379 Execution_unit_ThirdMultiplier_FIR_mult_17_n48
*380 Execution_unit_ThirdMultiplier_FIR_mult_17_n47
*381 Execution_unit_ThirdMultiplier_FIR_mult_17_n46
*382 Execution_unit_ThirdMultiplier_FIR_mult_17_n45
*383 Execution_unit_ThirdMultiplier_FIR_mult_17_n44
*384 Execution_unit_ThirdMultiplier_FIR_mult_17_n43
*385 Execution_unit_ThirdMultiplier_FIR_mult_17_n42
*386 Execution_unit_ThirdMultiplier_FIR_mult_17_n41
*387 Execution_unit_ThirdMultiplier_FIR_mult_17_n40
*388 Execution_unit_ThirdMultiplier_FIR_mult_17_n39
*389 Execution_unit_ThirdMultiplier_FIR_mult_17_n38
*390 Execution_unit_ThirdMultiplier_FIR_mult_17_n37
*391 Execution_unit_ThirdMultiplier_FIR_mult_17_n36
*392 Execution_unit_ThirdMultiplier_FIR_mult_17_n35
*393 Execution_unit_ThirdMultiplier_FIR_mult_17_n34
*394 Execution_unit_ThirdMultiplier_FIR_mult_17_n33
*395 Execution_unit_ThirdMultiplier_FIR_mult_17_n32
*396 Execution_unit_ThirdMultiplier_FIR_mult_17_n31
*397 Execution_unit_ThirdMultiplier_FIR_mult_17_n30
*398 Execution_unit_ThirdMultiplier_FIR_mult_17_n29
*399 Execution_unit_ThirdMultiplier_FIR_mult_17_n28
*400 Execution_unit_ThirdMultiplier_FIR_mult_17_n27
*401 Execution_unit_ThirdMultiplier_FIR_mult_17_n26
*402 Execution_unit_ThirdMultiplier_FIR_mult_17_n25
*403 Execution_unit_ThirdMultiplier_FIR_mult_17_n24
*404 Execution_unit_ThirdMultiplier_FIR_mult_17_n23
*405 Execution_unit_ThirdMultiplier_FIR_mult_17_n22
*406 Execution_unit_ThirdMultiplier_FIR_mult_17_n21
*407 Execution_unit_ThirdMultiplier_FIR_mult_17_n20
*408 Execution_unit_ThirdMultiplier_FIR_mult_17_n19
*409 Execution_unit_ThirdMultiplier_FIR_mult_17_n18
*410 Execution_unit_ThirdMultiplier_FIR_mult_17_n17
*411 Execution_unit_ThirdMultiplier_FIR_mult_17_n16
*412 Execution_unit_ThirdMultiplier_FIR_mult_17_n15
*413 Execution_unit_ThirdMultiplier_FIR_mult_17_n14
*414 Execution_unit_ThirdMultiplier_FIR_mult_17_n13
*415 Execution_unit_ThirdMultiplier_FIR_mult_17_n8
*416 Execution_unit_ThirdMultiplier_FIR_mult_17_n7
*417 Execution_unit_ThirdMultiplier_FIR_mult_17_n6
*418 Execution_unit_ThirdMultiplier_FIR_mult_17_n5
*419 Execution_unit_ThirdMultiplier_FIR_mult_17_n4
*420 Execution_unit_ThirdMultiplier_FIR_mult_17_n3
*421 Execution_unit_ThirdMultiplier_FIR_mult_17_n2
*422 Execution_unit_FourthMultiplier_FIR_mult_17_n182
*423 Execution_unit_FourthMultiplier_FIR_mult_17_n181
*424 Execution_unit_FourthMultiplier_FIR_mult_17_n180
*425 Execution_unit_FourthMultiplier_FIR_mult_17_n179
*426 Execution_unit_FourthMultiplier_FIR_mult_17_n178
*427 Execution_unit_FourthMultiplier_FIR_mult_17_n177
*428 Execution_unit_FourthMultiplier_FIR_mult_17_n176
*429 Execution_unit_FourthMultiplier_FIR_mult_17_n175
*430 Execution_unit_FourthMultiplier_FIR_mult_17_n174
*431 Execution_unit_FourthMultiplier_FIR_mult_17_n173
*432 Execution_unit_FourthMultiplier_FIR_mult_17_n172
*433 Execution_unit_FourthMultiplier_FIR_mult_17_n171
*434 Execution_unit_FourthMultiplier_FIR_mult_17_n170
*435 Execution_unit_FourthMultiplier_FIR_mult_17_n169
*436 Execution_unit_FourthMultiplier_FIR_mult_17_n168
*437 Execution_unit_FourthMultiplier_FIR_mult_17_n167
*438 Execution_unit_FourthMultiplier_FIR_mult_17_n166
*439 Execution_unit_FourthMultiplier_FIR_mult_17_n165
*440 Execution_unit_FourthMultiplier_FIR_mult_17_n164
*441 Execution_unit_FourthMultiplier_FIR_mult_17_n163
*442 Execution_unit_FourthMultiplier_FIR_mult_17_n162
*443 Execution_unit_FourthMultiplier_FIR_mult_17_n161
*444 Execution_unit_FourthMultiplier_FIR_mult_17_n160
*445 Execution_unit_FourthMultiplier_FIR_mult_17_n119
*446 Execution_unit_FourthMultiplier_FIR_mult_17_n118
*447 Execution_unit_FourthMultiplier_FIR_mult_17_n117
*448 Execution_unit_FourthMultiplier_FIR_mult_17_n116
*449 Execution_unit_FourthMultiplier_FIR_mult_17_n113
*450 Execution_unit_FourthMultiplier_FIR_mult_17_n112
*451 Execution_unit_FourthMultiplier_FIR_mult_17_n111
*452 Execution_unit_FourthMultiplier_FIR_mult_17_n110
*453 Execution_unit_FourthMultiplier_FIR_mult_17_n109
*454 Execution_unit_FourthMultiplier_FIR_mult_17_n106
*455 Execution_unit_FourthMultiplier_FIR_mult_17_n105
*456 Execution_unit_FourthMultiplier_FIR_mult_17_n104
*457 Execution_unit_FourthMultiplier_FIR_mult_17_n103
*458 Execution_unit_FourthMultiplier_FIR_mult_17_n102
*459 Execution_unit_FourthMultiplier_FIR_mult_17_n101
*460 Execution_unit_FourthMultiplier_FIR_mult_17_n100
*461 Execution_unit_FourthMultiplier_FIR_mult_17_n99
*462 Execution_unit_FourthMultiplier_FIR_mult_17_n98
*463 Execution_unit_FourthMultiplier_FIR_mult_17_n97
*464 Execution_unit_FourthMultiplier_FIR_mult_17_n95
*465 Execution_unit_FourthMultiplier_FIR_mult_17_n94
*466 Execution_unit_FourthMultiplier_FIR_mult_17_n93
*467 Execution_unit_FourthMultiplier_FIR_mult_17_n92
*468 Execution_unit_FourthMultiplier_FIR_mult_17_n91
*469 Execution_unit_FourthMultiplier_FIR_mult_17_n90
*470 Execution_unit_FourthMultiplier_FIR_mult_17_n89
*471 Execution_unit_FourthMultiplier_FIR_mult_17_n88
*472 Execution_unit_FourthMultiplier_FIR_mult_17_n87
*473 Execution_unit_FourthMultiplier_FIR_mult_17_n86
*474 Execution_unit_FourthMultiplier_FIR_mult_17_n85
*475 Execution_unit_FourthMultiplier_FIR_mult_17_n83
*476 Execution_unit_FourthMultiplier_FIR_mult_17_n82
*477 Execution_unit_FourthMultiplier_FIR_mult_17_n81
*478 Execution_unit_FourthMultiplier_FIR_mult_17_n80
*479 Execution_unit_FourthMultiplier_FIR_mult_17_n72
*480 Execution_unit_FourthMultiplier_FIR_mult_17_n71
*481 Execution_unit_FourthMultiplier_FIR_mult_17_n70
*482 Execution_unit_FourthMultiplier_FIR_mult_17_n69
*483 Execution_unit_FourthMultiplier_FIR_mult_17_n68
*484 Execution_unit_FourthMultiplier_FIR_mult_17_n67
*485 Execution_unit_FourthMultiplier_FIR_mult_17_n66
*486 Execution_unit_FourthMultiplier_FIR_mult_17_n65
*487 Execution_unit_FourthMultiplier_FIR_mult_17_n64
*488 Execution_unit_FourthMultiplier_FIR_mult_17_n63
*489 Execution_unit_FourthMultiplier_FIR_mult_17_n62
*490 Execution_unit_FourthMultiplier_FIR_mult_17_n61
*491 Execution_unit_FourthMultiplier_FIR_mult_17_n60
*492 Execution_unit_FourthMultiplier_FIR_mult_17_n59
*493 Execution_unit_FourthMultiplier_FIR_mult_17_n58
*494 Execution_unit_FourthMultiplier_FIR_mult_17_n57
*495 Execution_unit_FourthMultiplier_FIR_mult_17_n56
*496 Execution_unit_FourthMultiplier_FIR_mult_17_n55
*497 Execution_unit_FourthMultiplier_FIR_mult_17_n54
*498 Execution_unit_FourthMultiplier_FIR_mult_17_n53
*499 Execution_unit_FourthMultiplier_FIR_mult_17_n52
*500 Execution_unit_FourthMultiplier_FIR_mult_17_n51
*501 Execution_unit_FourthMultiplier_FIR_mult_17_n50
*502 Execution_unit_FourthMultiplier_FIR_mult_17_n49
*503 Execution_unit_FourthMultiplier_FIR_mult_17_n48
*504 Execution_unit_FourthMultiplier_FIR_mult_17_n47
*505 Execution_unit_FourthMultiplier_FIR_mult_17_n46
*506 Execution_unit_FourthMultiplier_FIR_mult_17_n45
*507 Execution_unit_FourthMultiplier_FIR_mult_17_n44
*508 Execution_unit_FourthMultiplier_FIR_mult_17_n43
*509 Execution_unit_FourthMultiplier_FIR_mult_17_n42
*510 Execution_unit_FourthMultiplier_FIR_mult_17_n41
*511 Execution_unit_FourthMultiplier_FIR_mult_17_n40
*512 Execution_unit_FourthMultiplier_FIR_mult_17_n39
*513 Execution_unit_FourthMultiplier_FIR_mult_17_n38
*514 Execution_unit_FourthMultiplier_FIR_mult_17_n37
*515 Execution_unit_FourthMultiplier_FIR_mult_17_n36
*516 Execution_unit_FourthMultiplier_FIR_mult_17_n35
*517 Execution_unit_FourthMultiplier_FIR_mult_17_n34
*518 Execution_unit_FourthMultiplier_FIR_mult_17_n33
*519 Execution_unit_FourthMultiplier_FIR_mult_17_n32
*520 Execution_unit_FourthMultiplier_FIR_mult_17_n31
*521 Execution_unit_FourthMultiplier_FIR_mult_17_n30
*522 Execution_unit_FourthMultiplier_FIR_mult_17_n29
*523 Execution_unit_FourthMultiplier_FIR_mult_17_n28
*524 Execution_unit_FourthMultiplier_FIR_mult_17_n27
*525 Execution_unit_FourthMultiplier_FIR_mult_17_n26
*526 Execution_unit_FourthMultiplier_FIR_mult_17_n25
*527 Execution_unit_FourthMultiplier_FIR_mult_17_n24
*528 Execution_unit_FourthMultiplier_FIR_mult_17_n23
*529 Execution_unit_FourthMultiplier_FIR_mult_17_n22
*530 Execution_unit_FourthMultiplier_FIR_mult_17_n21
*531 Execution_unit_FourthMultiplier_FIR_mult_17_n20
*532 Execution_unit_FourthMultiplier_FIR_mult_17_n19
*533 Execution_unit_FourthMultiplier_FIR_mult_17_n18
*534 Execution_unit_FourthMultiplier_FIR_mult_17_n17
*535 Execution_unit_FourthMultiplier_FIR_mult_17_n16
*536 Execution_unit_FourthMultiplier_FIR_mult_17_n15
*537 Execution_unit_FourthMultiplier_FIR_mult_17_n14
*538 Execution_unit_FourthMultiplier_FIR_mult_17_n13
*539 Execution_unit_FourthMultiplier_FIR_mult_17_n8
*540 Execution_unit_FourthMultiplier_FIR_mult_17_n7
*541 Execution_unit_FourthMultiplier_FIR_mult_17_n6
*542 Execution_unit_FourthMultiplier_FIR_mult_17_n5
*543 Execution_unit_FourthMultiplier_FIR_mult_17_n4
*544 Execution_unit_FourthMultiplier_FIR_mult_17_n3
*545 Execution_unit_FourthMultiplier_FIR_mult_17_n2
*546 Execution_unit_SW0_FIR_n7
*547 Execution_unit_SW0_FIR_n6
*548 Execution_unit_SW0_FIR_n5
*549 Execution_unit_SW0_FIR_n4
*550 Execution_unit_SW0_FIR_n3
*551 Execution_unit_SW0_FIR_n2
*552 Execution_unit_SW0_FIR_n1
*553 Execution_unit_SW0_FIR_n16
*554 Execution_unit_SW0_FIR_n15
*555 Execution_unit_SW0_FIR_n14
*556 Execution_unit_SW0_FIR_n13
*557 Execution_unit_SW0_FIR_n12
*558 Execution_unit_SW0_FIR_n11
*559 Execution_unit_SW0_FIR_n10
*560 Execution_unit_SW0_FIR_n9
*561 Execution_unit_SW0_FIR_n8
*562 Execution_unit_SW1_FIR_n25
*563 Execution_unit_SW1_FIR_n24
*564 Execution_unit_SW1_FIR_n23
*565 Execution_unit_SW1_FIR_n22
*566 Execution_unit_SW1_FIR_n21
*567 Execution_unit_SW1_FIR_n20
*568 Execution_unit_SW1_FIR_n19
*569 Execution_unit_SW1_FIR_n18
*570 Execution_unit_SW1_FIR_n17
*571 Execution_unit_SW1_FIR_n7
*572 Execution_unit_SW1_FIR_n6
*573 Execution_unit_SW1_FIR_n5
*574 Execution_unit_SW1_FIR_n4
*575 Execution_unit_SW1_FIR_n3
*576 Execution_unit_SW1_FIR_n2
*577 Execution_unit_SW1_FIR_n1
*578 Execution_unit_SW2_FIR_n25
*579 Execution_unit_SW2_FIR_n24
*580 Execution_unit_SW2_FIR_n23
*581 Execution_unit_SW2_FIR_n22
*582 Execution_unit_SW2_FIR_n21
*583 Execution_unit_SW2_FIR_n20
*584 Execution_unit_SW2_FIR_n19
*585 Execution_unit_SW2_FIR_n18
*586 Execution_unit_SW2_FIR_n17
*587 Execution_unit_SW2_FIR_n7
*588 Execution_unit_SW2_FIR_n6
*589 Execution_unit_SW2_FIR_n5
*590 Execution_unit_SW2_FIR_n4
*591 Execution_unit_SW2_FIR_n3
*592 Execution_unit_SW2_FIR_n2
*593 Execution_unit_SW2_FIR_n1
*594 Execution_unit_Pipe0_FIR_n25
*595 Execution_unit_Pipe0_FIR_n24
*596 Execution_unit_Pipe0_FIR_n23
*597 Execution_unit_Pipe0_FIR_n22
*598 Execution_unit_Pipe0_FIR_n21
*599 Execution_unit_Pipe0_FIR_n20
*600 Execution_unit_Pipe0_FIR_n19
*601 Execution_unit_Pipe0_FIR_n18
*602 Execution_unit_Pipe0_FIR_n17
*603 Execution_unit_Pipe0_FIR_n7
*604 Execution_unit_Pipe0_FIR_n6
*605 Execution_unit_Pipe0_FIR_n5
*606 Execution_unit_Pipe0_FIR_n4
*607 Execution_unit_Pipe0_FIR_n3
*608 Execution_unit_Pipe0_FIR_n2
*609 Execution_unit_Pipe0_FIR_n1
*610 Execution_unit_Pipe1_FIR_n25
*611 Execution_unit_Pipe1_FIR_n24
*612 Execution_unit_Pipe1_FIR_n23
*613 Execution_unit_Pipe1_FIR_n22
*614 Execution_unit_Pipe1_FIR_n21
*615 Execution_unit_Pipe1_FIR_n20
*616 Execution_unit_Pipe1_FIR_n19
*617 Execution_unit_Pipe1_FIR_n18
*618 Execution_unit_Pipe1_FIR_n17
*619 Execution_unit_Pipe1_FIR_n7
*620 Execution_unit_Pipe1_FIR_n6
*621 Execution_unit_Pipe1_FIR_n5
*622 Execution_unit_Pipe1_FIR_n4
*623 Execution_unit_Pipe1_FIR_n3
*624 Execution_unit_Pipe1_FIR_n2
*625 Execution_unit_Pipe1_FIR_n1
*626 Execution_unit_Pipe2_FIR_n25
*627 Execution_unit_Pipe2_FIR_n24
*628 Execution_unit_Pipe2_FIR_n23
*629 Execution_unit_Pipe2_FIR_n22
*630 Execution_unit_Pipe2_FIR_n21
*631 Execution_unit_Pipe2_FIR_n20