*SPEF "IEEE 1481-1998"
*DESIGN "IIR_filter_order2"
*DATE "Mon Nov  9 13:33:12 2020"
*VENDOR "Cadence Design Systems, Inc."
*PROGRAM "Innovus"
*VERSION "17.11-s080_1"
*DESIGN_FLOW "COUPLING C" "PIN_CAP NONE" "NAME_SCOPE LOCAL"
*DIVIDER /
*DELIMITER :
*BUS_DELIMITER []
*T_UNIT 1 NS
*C_UNIT 1 PF
*R_UNIT 1 OHM
*L_UNIT 1 HENRY

// MMMC spef file for corner 'my_rc'

*NAME_MAP

*1 Clk
*2 DIN[10]
*3 DIN[9]
*4 DIN[8]
*5 DIN[7]
*6 DIN[6]
*7 DIN[5]
*8 DIN[4]
*9 DIN[3]
*10 DIN[2]
*11 DIN[1]
*12 DIN[0]
*13 VIN
*14 Rst_n
*15 Vout
*16 DOUT[10]
*17 DOUT[9]
*18 DOUT[8]
*19 DOUT[7]
*20 DOUT[6]
*21 DOUT[5]
*22 DOUT[4]
*23 DOUT[3]
*24 DOUT[2]
*25 DOUT[1]
*26 DOUT[0]
*27 FE_RN_0_0
*28 FE_DBTN1_Execution_unit_w_1_0
*29 FE_DBTN0_Execution_unit_w_2_0
*30 R_sw0
*31 L_sw0
*32 CU_n3
*33 CU_n2
*34 CU_n1
*35 CU_STATE_0_
*36 Execution_unit_LoadedInput_n22
*37 Execution_unit_LoadedInput_n21
*38 Execution_unit_LoadedInput_n20
*39 Execution_unit_LoadedInput_n19
*40 Execution_unit_LoadedInput_n18
*41 Execution_unit_LoadedInput_n17
*42 Execution_unit_LoadedInput_n16
*43 Execution_unit_LoadedInput_n15
*44 Execution_unit_LoadedInput_n14
*45 Execution_unit_LoadedInput_n13
*46 Execution_unit_LoadedInput_n12
*47 Execution_unit_FirstSUM_fb_add_15_n1
*48 Execution_unit_SecondSUM_fb_add_15_n2
*49 Execution_unit_FirstMultiplier_fb_mult_17_n175
*50 Execution_unit_FirstMultiplier_fb_mult_17_n174
*51 Execution_unit_FirstMultiplier_fb_mult_17_n173
*52 Execution_unit_FirstMultiplier_fb_mult_17_n171
*53 Execution_unit_FirstMultiplier_fb_mult_17_n170
*54 Execution_unit_FirstMultiplier_fb_mult_17_n169
*55 Execution_unit_FirstMultiplier_fb_mult_17_n167
*56 Execution_unit_FirstMultiplier_fb_mult_17_n165
*57 Execution_unit_FirstMultiplier_fb_mult_17_n164
*58 Execution_unit_FirstMultiplier_fb_mult_17_n163
*59 Execution_unit_FirstMultiplier_fb_mult_17_n162
*60 Execution_unit_FirstMultiplier_fb_mult_17_n161
*61 Execution_unit_FirstMultiplier_fb_mult_17_n160
*62 Execution_unit_FirstMultiplier_fb_mult_17_n159
*63 Execution_unit_FirstMultiplier_fb_mult_17_n154
*64 Execution_unit_FirstMultiplier_fb_mult_17_n153
*65 Execution_unit_FirstMultiplier_fb_mult_17_n152
*66 Execution_unit_FirstMultiplier_fb_mult_17_n151
*67 Execution_unit_FirstMultiplier_fb_mult_17_n149
*68 Execution_unit_FirstMultiplier_fb_mult_17_n148
*69 Execution_unit_FirstMultiplier_fb_mult_17_n147
*70 Execution_unit_FirstMultiplier_fb_mult_17_n146
*71 Execution_unit_FirstMultiplier_fb_mult_17_n145
*72 Execution_unit_FirstMultiplier_fb_mult_17_n142
*73 Execution_unit_FirstMultiplier_fb_mult_17_n141
*74 Execution_unit_FirstMultiplier_fb_mult_17_n140
*75 Execution_unit_FirstMultiplier_fb_mult_17_n139
*76 Execution_unit_FirstMultiplier_fb_mult_17_n138
*77 Execution_unit_FirstMultiplier_fb_mult_17_n137
*78 Execution_unit_FirstMultiplier_fb_mult_17_n136
*79 Execution_unit_FirstMultiplier_fb_mult_17_n135
*80 Execution_unit_FirstMultiplier_fb_mult_17_n134
*81 Execution_unit_FirstMultiplier_fb_mult_17_n132
*82 Execution_unit_FirstMultiplier_fb_mult_17_n131
*83 Execution_unit_FirstMultiplier_fb_mult_17_n130
*84 Execution_unit_FirstMultiplier_fb_mult_17_n129
*85 Execution_unit_FirstMultiplier_fb_mult_17_n128
*86 Execution_unit_FirstMultiplier_fb_mult_17_n127
*87 Execution_unit_FirstMultiplier_fb_mult_17_n126
*88 Execution_unit_FirstMultiplier_fb_mult_17_n125
*89 Execution_unit_FirstMultiplier_fb_mult_17_n57
*90 Execution_unit_FirstMultiplier_fb_mult_17_n56
*91 Execution_unit_FirstMultiplier_fb_mult_17_n55
*92 Execution_unit_FirstMultiplier_fb_mult_17_n52
*93 Execution_unit_FirstMultiplier_fb_mult_17_n51
*94 Execution_unit_FirstMultiplier_fb_mult_17_n50
*95 Execution_unit_FirstMultiplier_fb_mult_17_n48
*96 Execution_unit_FirstMultiplier_fb_mult_17_n47
*97 Execution_unit_FirstMultiplier_fb_mult_17_n46
*98 Execution_unit_FirstMultiplier_fb_mult_17_n44
*99 Execution_unit_FirstMultiplier_fb_mult_17_n43
*100 Execution_unit_FirstMultiplier_fb_mult_17_n39
*101 Execution_unit_FirstMultiplier_fb_mult_17_n30
*102 Execution_unit_FirstMultiplier_fb_mult_17_n29
*103 Execution_unit_FirstMultiplier_fb_mult_17_n28
*104 Execution_unit_FirstMultiplier_fb_mult_17_n27
*105 Execution_unit_FirstMultiplier_fb_mult_17_n26
*106 Execution_unit_FirstMultiplier_fb_mult_17_n25
*107 Execution_unit_FirstMultiplier_fb_mult_17_n24
*108 Execution_unit_FirstMultiplier_fb_mult_17_n23
*109 Execution_unit_FirstMultiplier_fb_mult_17_n22
*110 Execution_unit_FirstMultiplier_fb_mult_17_n21
*111 Execution_unit_FirstMultiplier_fb_mult_17_n20
*112 Execution_unit_FirstMultiplier_fb_mult_17_n19
*113 Execution_unit_FirstMultiplier_fb_mult_17_n18
*114 Execution_unit_FirstMultiplier_fb_mult_17_n16
*115 Execution_unit_FirstMultiplier_fb_mult_17_n15
*116 Execution_unit_FirstMultiplier_fb_mult_17_n14
*117 Execution_unit_FirstMultiplier_fb_mult_17_n13
*118 Execution_unit_FirstMultiplier_fb_mult_17_n12
*119 Execution_unit_FirstMultiplier_fb_mult_17_n6
*120 Execution_unit_FirstMultiplier_fb_mult_17_n5
*121 Execution_unit_FirstMultiplier_fb_mult_17_n4
*122 Execution_unit_FirstMultiplier_fb_mult_17_n3
*123 Execution_unit_FirstMultiplier_fb_mult_17_n2
*124 Execution_unit_SecondMultiplier_fb_mult_17_n175
*125 Execution_unit_SecondMultiplier_fb_mult_17_n174
*126 Execution_unit_SecondMultiplier_fb_mult_17_n173
*127 Execution_unit_SecondMultiplier_fb_mult_17_n171
*128 Execution_unit_SecondMultiplier_fb_mult_17_n170
*129 Execution_unit_SecondMultiplier_fb_mult_17_n169
*130 Execution_unit_SecondMultiplier_fb_mult_17_n168
*131 Execution_unit_SecondMultiplier_fb_mult_17_n167
*132 Execution_unit_SecondMultiplier_fb_mult_17_n166
*133 Execution_unit_SecondMultiplier_fb_mult_17_n165
*134 Execution_unit_SecondMultiplier_fb_mult_17_n164
*135 Execution_unit_SecondMultiplier_fb_mult_17_n163
*136 Execution_unit_SecondMultiplier_fb_mult_17_n162
*137 Execution_unit_SecondMultiplier_fb_mult_17_n161
*138 Execution_unit_SecondMultiplier_fb_mult_17_n159
*139 Execution_unit_SecondMultiplier_fb_mult_17_n158
*140 Execution_unit_SecondMultiplier_fb_mult_17_n157
*141 Execution_unit_SecondMultiplier_fb_mult_17_n156
*142 Execution_unit_SecondMultiplier_fb_mult_17_n155
*143 Execution_unit_SecondMultiplier_fb_mult_17_n153
*144 Execution_unit_SecondMultiplier_fb_mult_17_n152
*145 Execution_unit_SecondMultiplier_fb_mult_17_n149
*146 Execution_unit_SecondMultiplier_fb_mult_17_n148
*147 Execution_unit_SecondMultiplier_fb_mult_17_n147
*148 Execution_unit_SecondMultiplier_fb_mult_17_n146
*149 Execution_unit_SecondMultiplier_fb_mult_17_n145
*150 Execution_unit_SecondMultiplier_fb_mult_17_n143
*151 Execution_unit_SecondMultiplier_fb_mult_17_n142
*152 Execution_unit_SecondMultiplier_fb_mult_17_n141
*153 Execution_unit_SecondMultiplier_fb_mult_17_n140
*154 Execution_unit_SecondMultiplier_fb_mult_17_n139
*155 Execution_unit_SecondMultiplier_fb_mult_17_n138
*156 Execution_unit_SecondMultiplier_fb_mult_17_n137
*157 Execution_unit_SecondMultiplier_fb_mult_17_n136
*158 Execution_unit_SecondMultiplier_fb_mult_17_n135
*159 Execution_unit_SecondMultiplier_fb_mult_17_n134
*160 Execution_unit_SecondMultiplier_fb_mult_17_n132
*161 Execution_unit_SecondMultiplier_fb_mult_17_n131
*162 Execution_unit_SecondMultiplier_fb_mult_17_n130
*163 Execution_unit_SecondMultiplier_fb_mult_17_n129
*164 Execution_unit_SecondMultiplier_fb_mult_17_n128
*165 Execution_unit_SecondMultiplier_fb_mult_17_n127
*166 Execution_unit_SecondMultiplier_fb_mult_17_n126
*167 Execution_unit_SecondMultiplier_fb_mult_17_n125
*168 Execution_unit_SecondMultiplier_fb_mult_17_n57
*169 Execution_unit_SecondMultiplier_fb_mult_17_n56
*170 Execution_unit_SecondMultiplier_fb_mult_17_n55
*171 Execution_unit_SecondMultiplier_fb_mult_17_n52
*172 Execution_unit_SecondMultiplier_fb_mult_17_n51
*173 Execution_unit_SecondMultiplier_fb_mult_17_n50
*174 Execution_unit_SecondMultiplier_fb_mult_17_n48
*175 Execution_unit_SecondMultiplier_fb_mult_17_n47
*176 Execution_unit_SecondMultiplier_fb_mult_17_n46
*177 Execution_unit_SecondMultiplier_fb_mult_17_n44
*178 Execution_unit_SecondMultiplier_fb_mult_17_n43
*179 Execution_unit_SecondMultiplier_fb_mult_17_n39
*180 Execution_unit_SecondMultiplier_fb_mult_17_n30
*181 Execution_unit_SecondMultiplier_fb_mult_17_n29
*182 Execution_unit_SecondMultiplier_fb_mult_17_n28
*183 Execution_unit_SecondMultiplier_fb_mult_17_n27
*184 Execution_unit_SecondMultiplier_fb_mult_17_n26
*185 Execution_unit_SecondMultiplier_fb_mult_17_n25
*186 Execution_unit_SecondMultiplier_fb_mult_17_n24
*187 Execution_unit_SecondMultiplier_fb_mult_17_n23
*188 Execution_unit_SecondMultiplier_fb_mult_17_n22
*189 Execution_unit_SecondMultiplier_fb_mult_17_n21
*190 Execution_unit_SecondMultiplier_fb_mult_17_n20
*191 Execution_unit_SecondMultiplier_fb_mult_17_n19
*192 Execution_unit_SecondMultiplier_fb_mult_17_n18
*193 Execution_unit_SecondMultiplier_fb_mult_17_n16
*194 Execution_unit_SecondMultiplier_fb_mult_17_n15
*195 Execution_unit_SecondMultiplier_fb_mult_17_n14
*196 Execution_unit_SecondMultiplier_fb_mult_17_n13
*197 Execution_unit_SecondMultiplier_fb_mult_17_n12
*198 Execution_unit_SecondMultiplier_fb_mult_17_n6
*199 Execution_unit_SecondMultiplier_fb_mult_17_n5
*200 Execution_unit_SecondMultiplier_fb_mult_17_n4
*201 Execution_unit_SecondMultiplier_fb_mult_17_n3
*202 Execution_unit_SecondMultiplier_fb_mult_17_n2
*203 Execution_unit_SW_0_n6
*204 Execution_unit_SW_0_n5
*205 Execution_unit_SW_0_n4
*206 Execution_unit_SW_0_n3
*207 Execution_unit_SW_0_n2
*208 Execution_unit_SW_0_n1
*209 Execution_unit_SW_0_n14
*210 Execution_unit_SW_0_n13
*211 Execution_unit_SW_0_n12
*212 Execution_unit_SW_0_n11
*213 Execution_unit_SW_0_n10
*214 Execution_unit_SW_0_n9
*215 Execution_unit_SW_0_n8
*216 Execution_unit_SW_0_n7
*217 Execution_unit_SW_1_n22
*218 Execution_unit_SW_1_n21
*219 Execution_unit_SW_1_n20
*220 Execution_unit_SW_1_n19
*221 Execution_unit_SW_1_n18
*222 Execution_unit_SW_1_n17
*223 Execution_unit_SW_1_n16
*224 Execution_unit_SW_1_n15
*225 Execution_unit_SW_1_n6
*226 Execution_unit_SW_1_n5
*227 Execution_unit_SW_1_n4
*228 Execution_unit_SW_1_n3
*229 Execution_unit_SW_1_n2
*230 Execution_unit_SW_1_n1
*231 Execution_unit_FirstSUM_ff_add_15_n2
*232 Execution_unit_SecondSUM_ff_add_15_n1
*233 Execution_unit_FirstMultiplier_ff_mult_17_n177
*234 Execution_unit_FirstMultiplier_ff_mult_17_n176
*235 Execution_unit_FirstMultiplier_ff_mult_17_n174
*236 Execution_unit_FirstMultiplier_ff_mult_17_n173
*237 Execution_unit_FirstMultiplier_ff_mult_17_n172
*238 Execution_unit_FirstMultiplier_ff_mult_17_n169
*239 Execution_unit_FirstMultiplier_ff_mult_17_n168
*240 Execution_unit_FirstMultiplier_ff_mult_17_n167
*241 Execution_unit_FirstMultiplier_ff_mult_17_n166
*242 Execution_unit_FirstMultiplier_ff_mult_17_n163
*243 Execution_unit_FirstMultiplier_ff_mult_17_n162
*244 Execution_unit_FirstMultiplier_ff_mult_17_n161
*245 Execution_unit_FirstMultiplier_ff_mult_17_n160
*246 Execution_unit_FirstMultiplier_ff_mult_17_n159
*247 Execution_unit_FirstMultiplier_ff_mult_17_n158
*248 Execution_unit_FirstMultiplier_ff_mult_17_n157
*249 Execution_unit_FirstMultiplier_ff_mult_17_n156
*250 Execution_unit_FirstMultiplier_ff_mult_17_n155
*251 Execution_unit_FirstMultiplier_ff_mult_17_n154
*252 Execution_unit_FirstMultiplier_ff_mult_17_n153
*253 Execution_unit_FirstMultiplier_ff_mult_17_n152
*254 Execution_unit_FirstMultiplier_ff_mult_17_n151
*255 Execution_unit_FirstMultiplier_ff_mult_17_n150
*256 Execution_unit_FirstMultiplier_ff_mult_17_n149
*257 Execution_unit_FirstMultiplier_ff_mult_17_n148
*258 Execution_unit_FirstMultiplier_ff_mult_17_n146
*259 Execution_unit_FirstMultiplier_ff_mult_17_n145
*260 Execution_unit_FirstMultiplier_ff_mult_17_n144
*261 Execution_unit_FirstMultiplier_ff_mult_17_n142
*262 Execution_unit_FirstMultiplier_ff_mult_17_n141
*263 Execution_unit_FirstMultiplier_ff_mult_17_n140
*264 Execution_unit_FirstMultiplier_ff_mult_17_n139
*265 Execution_unit_FirstMultiplier_ff_mult_17_n138
*266 Execution_unit_FirstMultiplier_ff_mult_17_n137
*267 Execution_unit_FirstMultiplier_ff_mult_17_n136
*268 Execution_unit_FirstMultiplier_ff_mult_17_n135
*269 Execution_unit_FirstMultiplier_ff_mult_17_n134
*270 Execution_unit_FirstMultiplier_ff_mult_17_n133
*271 Execution_unit_FirstMultiplier_ff_mult_17_n132
*272 Execution_unit_FirstMultiplier_ff_mult_17_n131
*273 Execution_unit_FirstMultiplier_ff_mult_17_n130
*274 Execution_unit_FirstMultiplier_ff_mult_17_n129
*275 Execution_unit_FirstMultiplier_ff_mult_17_n128
*276 Execution_unit_FirstMultiplier_ff_mult_17_n127
*277 Execution_unit_FirstMultiplier_ff_mult_17_n126
*278 Execution_unit_FirstMultiplier_ff_mult_17_n125
*279 Execution_unit_FirstMultiplier_ff_mult_17_n57
*280 Execution_unit_FirstMultiplier_ff_mult_17_n56
*281 Execution_unit_FirstMultiplier_ff_mult_17_n55
*282 Execution_unit_FirstMultiplier_ff_mult_17_n52
*283 Execution_unit_FirstMultiplier_ff_mult_17_n51
*284 Execution_unit_FirstMultiplier_ff_mult_17_n50
*285 Execution_unit_FirstMultiplier_ff_mult_17_n48
*286 Execution_unit_FirstMultiplier_ff_mult_17_n47
*287 Execution_unit_FirstMultiplier_ff_mult_17_n46
*288 Execution_unit_FirstMultiplier_ff_mult_17_n44
*289 Execution_unit_FirstMultiplier_ff_mult_17_n43
*290 Execution_unit_FirstMultiplier_ff_mult_17_n39
*291 Execution_unit_FirstMultiplier_ff_mult_17_n30
*292 Execution_unit_FirstMultiplier_ff_mult_17_n29
*293 Execution_unit_FirstMultiplier_ff_mult_17_n28
*294 Execution_unit_FirstMultiplier_ff_mult_17_n27
*295 Execution_unit_FirstMultiplier_ff_mult_17_n26
*296 Execution_unit_FirstMultiplier_ff_mult_17_n25
*297 Execution_unit_FirstMultiplier_ff_mult_17_n24
*298 Execution_unit_FirstMultiplier_ff_mult_17_n23
*299 Execution_unit_FirstMultiplier_ff_mult_17_n22
*300 Execution_unit_FirstMultiplier_ff_mult_17_n21
*301 Execution_unit_FirstMultiplier_ff_mult_17_n20
*302 Execution_unit_FirstMultiplier_ff_mult_17_n19
*303 Execution_unit_FirstMultiplier_ff_mult_17_n18
*304 Execution_unit_FirstMultiplier_ff_mult_17_n16
*305 Execution_unit_FirstMultiplier_ff_mult_17_n15
*306 Execution_unit_FirstMultiplier_ff_mult_17_n14
*307 Execution_unit_FirstMultiplier_ff_mult_17_n13
*308 Execution_unit_FirstMultiplier_ff_mult_17_n12
*309 Execution_unit_FirstMultiplier_ff_mult_17_n6
*310 Execution_unit_FirstMultiplier_ff_mult_17_n5
*311 Execution_unit_FirstMultiplier_ff_mult_17_n4
*312 Execution_unit_FirstMultiplier_ff_mult_17_n3
*313 Execution_unit_FirstMultiplier_ff_mult_17_n2
*314 Execution_unit_SecondMultiplier_ff_mult_17_n177
*315 Execution_unit_SecondMultiplier_ff_mult_17_n176
*316 Execution_unit_SecondMultiplier_ff_mult_17_n175
*317 Execution_unit_SecondMultiplier_ff_mult_17_n174
*318 Execution_unit_SecondMultiplier_ff_mult_17_n173
*319 Execution_unit_SecondMultiplier_ff_mult_17_n172
*320 Execution_unit_SecondMultiplier_ff_mult_17_n170
*321 Execution_unit_SecondMultiplier_ff_mult_17_n169
*322 Execution_unit_SecondMultiplier_ff_mult_17_n168
*323 Execution_unit_SecondMultiplier_ff_mult_17_n167
*324 Execution_unit_SecondMultiplier_ff_mult_17_n166
*325 Execution_unit_SecondMultiplier_ff_mult_17_n165
*326 Execution_unit_SecondMultiplier_ff_mult_17_n164
*327 Execution_unit_SecondMultiplier_ff_mult_17_n163
*328 Execution_unit_SecondMultiplier_ff_mult_17_n162
*329 Execution_unit_SecondMultiplier_ff_mult_17_n161
*330 Execution_unit_SecondMultiplier_ff_mult_17_n160
*331 Execution_unit_SecondMultiplier_ff_mult_17_n159
*332 Execution_unit_SecondMultiplier_ff_mult_17_n158
*333 Execution_unit_SecondMultiplier_ff_mult_17_n157
*334 Execution_unit_SecondMultiplier_ff_mult_17_n154
*335 Execution_unit_SecondMultiplier_ff_mult_17_n153
*336 Execution_unit_SecondMultiplier_ff_mult_17_n152
*337 Execution_unit_SecondMultiplier_ff_mult_17_n151
*338 Execution_unit_SecondMultiplier_ff_mult_17_n150
*339 Execution_unit_SecondMultiplier_ff_mult_17_n148
*340 Execution_unit_SecondMultiplier_ff_mult_17_n146
*341 Execution_unit_SecondMultiplier_ff_mult_17_n145
*342 Execution_unit_SecondMultiplier_ff_mult_17_n144
*343 Execution_unit_SecondMultiplier_ff_mult_17_n142
*344 Execution_unit_SecondMultiplier_ff_mult_17_n141
*345 Execution_unit_SecondMultiplier_ff_mult_17_n140
*346 Execution_unit_SecondMultiplier_ff_mult_17_n139
*347 Execution_unit_SecondMultiplier_ff_mult_17_n137
*348 Execution_unit_SecondMultiplier_ff_mult_17_n136
*349 Execution_unit_SecondMultiplier_ff_mult_17_n135
*350 Execution_unit_SecondMultiplier_ff_mult_17_n134
*351 Execution_unit_SecondMultiplier_ff_mult_17_n133
*352 Execution_unit_SecondMultiplier_ff_mult_17_n132
*353 Execution_unit_SecondMultiplier_ff_mult_17_n131
*354 Execution_unit_SecondMultiplier_ff_mult_17_n130
*355 Execution_unit_SecondMultiplier_ff_mult_17_n129
*356 Execution_unit_SecondMultiplier_ff_mult_17_n128
*357 Execution_unit_SecondMultiplier_ff_mult_17_n127
*358 Execution_unit_SecondMultiplier_ff_mult_17_n126
*359 Execution_unit_SecondMultiplier_ff_mult_17_n125
*360 Execution_unit_SecondMultiplier_ff_mult_17_n57
*361 Execution_unit_SecondMultiplier_ff_mult_17_n56
*362 Execution_unit_SecondMultiplier_ff_mult_17_n55
*363 Execution_unit_SecondMultiplier_ff_mult_17_n52
*364 Execution_unit_SecondMultiplier_ff_mult_17_n51
*365 Execution_unit_SecondMultiplier_ff_mult_17_n50
*366 Execution_unit_SecondMultiplier_ff_mult_17_n48
*367 Execution_unit_SecondMultiplier_ff_mult_17_n47
*368 Execution_unit_SecondMultiplier_ff_mult_17_n46
*369 Execution_unit_SecondMultiplier_ff_mult_17_n44
*370 Execution_unit_SecondMultiplier_ff_mult_17_n43
*371 Execution_unit_SecondMultiplier_ff_mult_17_n39
*372 Execution_unit_SecondMultiplier_ff_mult_17_n30
*373 Execution_unit_SecondMultiplier_ff_mult_17_n29
*374 Execution_unit_SecondMultiplier_ff_mult_17_n28
*375 Execution_unit_SecondMultiplier_ff_mult_17_n27
*376 Execution_unit_SecondMultiplier_ff_mult_17_n26
*377 Execution_unit_SecondMultiplier_ff_mult_17_n25
*378 Execution_unit_SecondMultiplier_ff_mult_17_n24
*379 Execution_unit_SecondMultiplier_ff_mult_17_n23
*380 Execution_unit_SecondMultiplier_ff_mult_17_n22
*381 Execution_unit_SecondMultiplier_ff_mult_17_n21
*382 Execution_unit_SecondMultiplier_ff_mult_17_n20
*383 Execution_unit_SecondMultiplier_ff_mult_17_n19
*384 Execution_unit_SecondMultiplier_ff_mult_17_n18
*385 Execution_unit_SecondMultiplier_ff_mult_17_n16
*386 Execution_unit_SecondMultiplier_ff_mult_17_n15
*387 Execution_unit_SecondMultiplier_ff_mult_17_n14
*388 Execution_unit_SecondMultiplier_ff_mult_17_n13
*389 Execution_unit_SecondMultiplier_ff_mult_17_n12
*390 Execution_unit_SecondMultiplier_ff_mult_17_n6
*391 Execution_unit_SecondMultiplier_ff_mult_17_n5
*392 Execution_unit_SecondMultiplier_ff_mult_17_n4
*393 Execution_unit_SecondMultiplier_ff_mult_17_n3
*394 Execution_unit_SecondMultiplier_ff_mult_17_n2
*395 Execution_unit_ThirdMultiplier_ff_mult_17_n177
*396 Execution_unit_ThirdMultiplier_ff_mult_17_n176
*397 Execution_unit_ThirdMultiplier_ff_mult_17_n174
*398 Execution_unit_ThirdMultiplier_ff_mult_17_n173
*399 Execution_unit_ThirdMultiplier_ff_mult_17_n172
*400 Execution_unit_ThirdMultiplier_ff_mult_17_n169
*401 Execution_unit_ThirdMultiplier_ff_mult_17_n168
*402 Execution_unit_ThirdMultiplier_ff_mult_17_n167
*403 Execution_unit_ThirdMultiplier_ff_mult_17_n166
*404 Execution_unit_ThirdMultiplier_ff_mult_17_n165
*405 Execution_unit_ThirdMultiplier_ff_mult_17_n163
*406 Execution_unit_ThirdMultiplier_ff_mult_17_n162
*407 Execution_unit_ThirdMultiplier_ff_mult_17_n161
*408 Execution_unit_ThirdMultiplier_ff_mult_17_n160
*409 Execution_unit_ThirdMultiplier_ff_mult_17_n159
*410 Execution_unit_ThirdMultiplier_ff_mult_17_n158
*411 Execution_unit_ThirdMultiplier_ff_mult_17_n157
*412 Execution_unit_ThirdMultiplier_ff_mult_17_n156
*413 Execution_unit_ThirdMultiplier_ff_mult_17_n154
*414 Execution_unit_ThirdMultiplier_ff_mult_17_n153
*415 Execution_unit_ThirdMultiplier_ff_mult_17_n152
*416 Execution_unit_ThirdMultiplier_ff_mult_17_n151
*417 Execution_unit_ThirdMultiplier_ff_mult_17_n150
*418 Execution_unit_ThirdMultiplier_ff_mult_17_n149
*419 Execution_unit_ThirdMultiplier_ff_mult_17_n148
*420 Execution_unit_ThirdMultiplier_ff_mult_17_n146
*421 Execution_unit_ThirdMultiplier_ff_mult_17_n145
*422 Execution_unit_ThirdMultiplier_ff_mult_17_n144
*423 Execution_unit_ThirdMultiplier_ff_mult_17_n142
*424 Execution_unit_ThirdMultiplier_ff_mult_17_n141
*425 Execution_unit_ThirdMultiplier_ff_mult_17_n140
*426 Execution_unit_ThirdMultiplier_ff_mult_17_n139
*427 Execution_unit_ThirdMultiplier_ff_mult_17_n137
*428 Execution_unit_ThirdMultiplier_ff_mult_17_n136
*429 Execution_unit_ThirdMultiplier_ff_mult_17_n135
*430 Execution_unit_ThirdMultiplier_ff_mult_17_n134
*431 Execution_unit_ThirdMultiplier_ff_mult_17_n133
*432 Execution_unit_ThirdMultiplier_ff_mult_17_n132
*433 Execution_unit_ThirdMultiplier_ff_mult_17_n131
*434 Execution_unit_ThirdMultiplier_ff_mult_17_n130
*435 Execution_unit_ThirdMultiplier_ff_mult_17_n129
*436 Execution_unit_ThirdMultiplier_ff_mult_17_n127
*437 Execution_unit_ThirdMultiplier_ff_mult_17_n126
*438 Execution_unit_ThirdMultiplier_ff_mult_17_n125
*439 Execution_unit_ThirdMultiplier_ff_mult_17_n57
*440 Execution_unit_ThirdMultiplier_ff_mult_17_n56
*441 Execution_unit_ThirdMultiplier_ff_mult_17_n55
*442 Execution_unit_ThirdMultiplier_ff_mult_17_n52
*443 Execution_unit_ThirdMultiplier_ff_mult_17_n51
*444 Execution_unit_ThirdMultiplier_ff_mult_17_n50
*445 Execution_unit_ThirdMultiplier_ff_mult_17_n48
*446 Execution_unit_ThirdMultiplier_ff_mult_17_n47
*447 Execution_unit_ThirdMultiplier_ff_mult_17_n46
*448 Execution_unit_ThirdMultiplier_ff_mult_17_n44
*449 Execution_unit_ThirdMultiplier_ff_mult_17_n43
*450 Execution_unit_ThirdMultiplier_ff_mult_17_n39
*451 Execution_unit_ThirdMultiplier_ff_mult_17_n30
*452 Execution_unit_ThirdMultiplier_ff_mult_17_n29
*453 Execution_unit_ThirdMultiplier_ff_mult_17_n28
*454 Execution_unit_ThirdMultiplier_ff_mult_17_n27
*455 Execution_unit_ThirdMultiplier_ff_mult_17_n26
*456 Execution_unit_ThirdMultiplier_ff_mult_17_n25
*457 Execution_unit_ThirdMultiplier_ff_mult_17_n24
*458 Execution_unit_ThirdMultiplier_ff_mult_17_n23
*459 Execution_unit_ThirdMultiplier_ff_mult_17_n22
*460 Execution_unit_ThirdMultiplier_ff_mult_17_n21
*461 Execution_unit_ThirdMultiplier_ff_mult_17_n20
*462 Execution_unit_ThirdMultiplier_ff_mult_17_n19
*463 Execution_unit_ThirdMultiplier_ff_mult_17_n18
*464 Execution_unit_ThirdMultiplier_ff_mult_17_n16
*465 Execution_unit_ThirdMultiplier_ff_mult_17_n15
*466 Execution_unit_ThirdMultiplier_ff_mult_17_n14
*467 Execution_unit_ThirdMultiplier_ff_mult_17_n13
*468 Execution_unit_ThirdMultiplier_ff_mult_17_n12
*469 Execution_unit_ThirdMultiplier_ff_mult_17_n6
*470 Execution_unit_ThirdMultiplier_ff_mult_17_n5
*471 Execution_unit_ThirdMultiplier_ff_mult_17_n4
*472 Execution_unit_ThirdMultiplier_ff_mult_17_n3
*473 Execution_unit_ThirdMultiplier_ff_mult_17_n2
*474 Execution_unit_LoadedOutput_n63
*475 Execution_unit_LoadedOutput_n62
*476 Execution_unit_LoadedOutput_n61
*477 Execution_unit_LoadedOutput_n60
*478 Execution_unit_LoadedOutput_n59
*479 Execution_unit_LoadedOutput_n58
*480 Execution_unit_LoadedOutput_n57
*481 Execution_unit_LoadedOutput_n56
*482 Execution_unit_LoadedOutput_n55
*483 Execution_unit_LoadedOutput_n54
*484 Execution_unit_LoadedOutput_n53
*485 Execution_unit_LoadedOutput_n52
*486 Execution_unit_LoadedOutput_n51
*487 Execution_unit_LoadedOutput_n50
*488 Execution_unit_LoadedOutput_n49
*489 Execution_unit_LoadedOutput_n48
*490 Execution_unit_LoadedOutput_n47
*491 Execution_unit_LoadedOutput_n46
*492 Execution_unit_LoadedOutput_n45
*493 Execution_unit_LoadedOutput_n44
*494 Execution_unit_LoadedOutput_n43
*495 Execution_unit_LoadedOutput_n42
*496 Execution_unit_LoadedOutput_n41
*497 Execution_unit_LoadedOutput_n40
*498 Execution_unit_LoadedOutput_n39
*499 Execution_unit_LoadedOutput_n38
*500 Execution_unit_LoadedOutput_n37
*501 Execution_unit_LoadedOutput_n36
*502 Execution_unit_y_extended[10]
*503 Execution_unit_y_extended[9]
*504 Execution_unit_y_extended[8]
*505 Execution_unit_y_extended[7]
*506 Execution_unit_y_extended[6]
*507 Execution_unit_y_extended[5]
*508 Execution_unit_m2_ff[5]
*509 Execution_unit_m2_ff[4]
*510 Execution_unit_m2_ff[3]
*511 Execution_unit_m2_ff[2]
*512 Execution_unit_m2_ff[1]
*513 Execution_unit_m2_ff[0]
*514 Execution_unit_m1_ff[5]
*515 Execution_unit_m1_ff[4]
*516 Execution_unit_m1_ff[3]
*517 Execution_unit_m1_ff[2]
*518 Execution_unit_m1_ff[1]
*519 Execution_unit_m1_ff[0]
*520 Execution_unit_ff[5]
*521 Execution_unit_ff[4]
*522 Execution_unit_ff[3]
*523 Execution_unit_ff[2]
*524 Execution_unit_ff[1]
*525 Execution_unit_ff[0]
*526 Execution_unit_m0_ff[5]
*527 Execution_unit_m0_ff[4]
*528 Execution_unit_m0_ff[3]
*529 Execution_unit_m0_ff[2]
*530 Execution_unit_m0_ff[1]
*531 Execution_unit_m0_ff[0]
*532 Execution_unit_w_2[5]
*533 Execution_unit_w_2[4]
*534 Execution_unit_w_2[3]
*535 Execution_unit_w_2[2]
*536 Execution_unit_w_2[1]
*537 Execution_unit_w_2[0]
*538 Execution_unit_w_1[5]
*539 Execution_unit_w_1[4]
*540 Execution_unit_w_1[3]
*541 Execution_unit_w_1[2]
*542 Execution_unit_w_1[1]
*543 Execution_unit_w_1[0]
*544 Execution_unit_m2_fb[5]
*545 Execution_unit_m2_fb[4]
*546 Execution_unit_m2_fb[3]
*547 Execution_unit_m2_fb[2]
*548 Execution_unit_m2_fb[1]
*549 Execution_unit_m2_fb[0]
*550 Execution_unit_m1_fb[5]
*551 Execution_unit_m1_fb[4]
*552 Execution_unit_m1_fb[3]
*553 Execution_unit_m1_fb[2]
*554 Execution_unit_m1_fb[1]
*555 Execution_unit_m1_fb[0]
*556 Execution_unit_w[5]
*557 Execution_unit_w[4]
*558 Execution_unit_w[3]
*559 Execution_unit_w[2]
*560 Execution_unit_w[1]
*561 Execution_unit_w[0]
*562 Execution_unit_fb[5]
*563 Execution_unit_fb[4]
*564 Execution_unit_fb[3]
*565 Execution_unit_fb[2]
*566 Execution_unit_fb[1]
*567 Execution_unit_fb[0]
*568 Execution_unit_d_reduced[5]
*569 Execution_unit_d_reduced[4]
*570 Execution_unit_d_reduced[3]
*571 Execution_unit_d_reduced[2]
*572 Execution_unit_d_reduced[1]
*573 Execution_unit_d_reduced[0]
*574 Execution_unit_d_loaded[4]
*575 Execution_unit_d_loaded[3]
*576 Execution_unit_d_loaded[2]
*577 Execution_unit_d_loaded[1]
*578 Execution_unit_d_loaded[0]
*579 Execution_unit_FirstSUM_fb_add_15_carry[5]
*580 Execution_unit_FirstSUM_fb_add_15_carry[4]
*581 Execution_unit_FirstSUM_fb_add_15_carry[3]
*582 Execution_unit_FirstSUM_fb_add_15_carry[2]
*583 Execution_unit_SecondSUM_fb_add_15_carry[5]
*584 Execution_unit_SecondSUM_fb_add_15_carry[4]
*585 Execution_unit_SecondSUM_fb_add_15_carry[3]
*586 Execution_unit_SecondSUM_fb_add_15_carry[2]
*587 Execution_unit_FirstSUM_ff_add_15_carry[5]
*588 Execution_unit_FirstSUM_ff_add_15_carry[4]
*589 Execution_unit_FirstSUM_ff_add_15_carry[3]
*590 Execution_unit_FirstSUM_ff_add_15_carry[2]
*591 Execution_unit_SecondSUM_ff_add_15_carry[5]
*592 Execution_unit_SecondSUM_ff_add_15_carry[4]
*593 Execution_unit_SecondSUM_ff_add_15_carry[3]
*594 Execution_unit_SecondSUM_ff_add_15_carry[2]
*595 FE_RC_80_0
*596 FE_RC_79_0
*597 FE_RC_78_0
*598 FE_RC_77_0
*599 FE_RC_76_0
*600 FE_RC_73_0
*601 FE_RC_70_0
*602 FE_RC_68_0
*603 FE_RC_67_0
*604 FE_RC_66_0
*605 FE_RC_65_0
*606 FE_RC_64_0
*607 FE_RC_59_0
*608 FE_RC_56_0
*609 FE_RC_55_0
*610 FE_RC_54_0
*611 FE_RC_52_0
*612 FE_RC_48_0
*613 FE_RC_47_0
*614 FE_RC_46_0
*615 FE_RC_44_0
*616 FE_RC_43_0
*617 FE_RC_42_0
*618 FE_RC_41_0
*619 FE_RC_40_0
*620 FE_RC_39_0
*621 FE_RC_38_0
*622 FE_RC_37_0
*623 FE_RC_36_0
*624 FE_RC_33_0
*625 FE_RC_31_0
*626 FE_RC_30_0
*627 FE_RC_5_0
*628 FE_RC_2_0
*629 FE_DBTC1_Execution_unit_w_1_0
*630 FE_DBTC0_Execution_unit_w_2_0
*631 CU_U6
*632 CU_U5
*633 CU_U4
*634 CU_U3
*635 CU_U7
*636 CU_STATE_reg_1_
*637 CU_STATE_reg_0_
*638 Execution_unit_LoadedInput_datoOutput_reg_0_
*639 Execution_unit_LoadedInput_datoOutput_reg_1_
*640 Execution_unit_LoadedInput_datoOutput_reg_2_
*641 Execution_unit_LoadedInput_datoOutput_reg_3_
*642 Execution_unit_LoadedInput_datoOutput_reg_4_
*643 Execution_unit_LoadedInput_datoOutput_reg_5_
*644 Execution_unit_LoadedInput_datoOutput_reg_6_
*645 Execution_unit_LoadedInput_datoOutput_reg_7_
*646 Execution_unit_LoadedInput_datoOutput_reg_8_
*647 Execution_unit_LoadedInput_datoOutput_reg_9_
*648 Execution_unit_LoadedInput_datoOutput_reg_10_
*649 Execution_unit_FirstSUM_fb_add_15_U2
*650 Execution_unit_FirstSUM_fb_add_15_U1
*651 Execution_unit_FirstSUM_fb_add_15_U1_1
*652 Execution_unit_FirstSUM_fb_add_15_U1_2
*653 Execution_unit_FirstSUM_fb_add_15_U1_3
*654 Execution_unit_FirstSUM_fb_add_15_U1_4
*655 Execution_unit_FirstSUM_fb_add_15_U1_5
*656 Execution_unit_SecondSUM_fb_add_15_U2
*657 Execution_unit_SecondSUM_fb_add_15_U1
*658 Execution_unit_SecondSUM_fb_add_15_U1_1
*659 Execution_unit_SecondSUM_fb_add_15_U1_2
*660 Execution_unit_SecondSUM_fb_add_15_U1_3
*661 Execution_unit_SecondSUM_fb_add_15_U1_4
*662 Execution_unit_SecondSUM_fb_add_15_U1_5
*663 Execution_unit_FirstMultiplier_fb_mult_17_U168
*664 Execution_unit_FirstMultiplier_fb_mult_17_U165
*665 Execution_unit_FirstMultiplier_fb_mult_17_U163
*666 Execution_unit_FirstMultiplier_fb_mult_17_U162
*667 Execution_unit_FirstMultiplier_fb_mult_17_U159
*668 Execution_unit_FirstMultiplier_fb_mult_17_U158
*669 Execution_unit_FirstMultiplier_fb_mult_17_U157
*670 Execution_unit_FirstMultiplier_fb_mult_17_U155
*671 Execution_unit_FirstMultiplier_fb_mult_17_U154
*672 Execution_unit_FirstMultiplier_fb_mult_17_U153
*673 Execution_unit_FirstMultiplier_fb_mult_17_U152
*674 Execution_unit_FirstMultiplier_fb_mult_17_U151
*675 Execution_unit_FirstMultiplier_fb_mult_17_U150
*676 Execution_unit_FirstMultiplier_fb_mult_17_U148
*677 Execution_unit_FirstMultiplier_fb_mult_17_U147
*678 Execution_unit_FirstMultiplier_fb_mult_17_U146
*679 Execution_unit_FirstMultiplier_fb_mult_17_U145
*680 Execution_unit_FirstMultiplier_fb_mult_17_U143
*681 Execution_unit_FirstMultiplier_fb_mult_17_U142
*682 Execution_unit_FirstMultiplier_fb_mult_17_U140
*683 Execution_unit_FirstMultiplier_fb_mult_17_U138
*684 Execution_unit_FirstMultiplier_fb_mult_17_U137
*685 Execution_unit_FirstMultiplier_fb_mult_17_U136
*686 Execution_unit_FirstMultiplier_fb_mult_17_U130
*687 Execution_unit_FirstMultiplier_fb_mult_17_U128
*688 Execution_unit_FirstMultiplier_fb_mult_17_U126
*689 Execution_unit_FirstMultiplier_fb_mult_17_U125
*690 Execution_unit_FirstMultiplier_fb_mult_17_U124